LTspice 26.0.1 for Windows
Circuit: C:\users\rami\AppData\Local\Temp\tmp5.net
Start Time: Wed Apr  8 18:52:45 2026
solver = Normal
Maximum thread count: 4
tnom = 27
temp = 27
method = trap
WARNING: Node nc_03 is floating.

Direct Newton iteration succeeded in finding operating point.
Total elapsed time: 1.599 seconds.

Files loaded:
C:\users\rami\AppData\Local\Temp\tmp5.net
C:\users\rami\AppData\Local\LTspice\lib\cmp\standard.mos
C:\users\rami\AppData\Local\LTspice\lib\sub\models.lib
C:\users\rami\AppData\Local\LTspice\lib\sub\TCLib\triangular.lib

