LTspice 26.0.1 for Windows
Circuit: C:\users\rami\AppData\Local\Temp\tmp4.net
Start Time: Wed Apr  8 20:00:41 2026
solver = Normal
Maximum thread count: 4
tnom = 27
temp = 27
method = trap
Direct Newton iteration succeeded in finding operating point.
Total elapsed time: 0.496 seconds.

Files loaded:
C:\users\rami\AppData\Local\Temp\tmp4.net
C:\users\rami\AppData\Local\LTspice\lib\cmp\standard.mos
C:\users\rami\AppData\Local\LTspice\lib\sub\models.lib
C:\users\rami\AppData\Local\LTspice\lib\sub\TCLib\triangular.lib

