LTspice 26.0.1 for Windows
Circuit: C:\users\rami\AppData\Local\Temp\tmp4.net
Start Time: Wed Apr  8 15:46:54 2026
solver = Normal
Maximum thread count: 4
tnom = 27
temp = 27
method = trap
WARNING: Node nc_02 is floating.
WARNING: Node nc_04 is floating.

Instance "M6": Width narrower than recommended for a level 3 MOSFET.
Direct Newton iteration succeeded in finding operating point.
Total elapsed time: 0.554 seconds.

Files loaded:
C:\users\rami\AppData\Local\Temp\tmp4.net
C:\users\rami\AppData\Local\LTspice\lib\cmp\standard.mos
C:\users\rami\AppData\Local\LTspice\lib\sub\models.lib
C:\users\rami\AppData\Local\LTspice\lib\sub\TCLib\triangular.lib

