LTspice 26.0.1 for Windows
Circuit: C:\users\rami\AppData\Local\Temp\tmp3.net
Start Time: Wed Apr  8 20:46:57 2026
solver = Normal
Maximum thread count: 4
tnom = 27
temp = 27
method = trap
