LTspice 24.1.8 for Windows
Circuit: C:\Workspace\Facultad\2026\Microelectrónica\TPs\TP1\TP1_ej3.net
Start Time: Tue Apr  7 09:19:38 2026
solver = Normal
Maximum thread count: 12
tnom = 27
temp = 27
method = modified trap
WARNING: Node nc_02 is floating.
WARNING: Node nc_04 is floating.

Direct Newton iteration for .op point succeeded.
Total elapsed time: 0.110 seconds.

Files loaded:
C:\Workspace\Facultad\2026\Microelectrónica\TPs\TP1\TP1_ej3.net
C:\Users\joako\AppData\Local\LTspice\lib\cmp\standard.mos
C:\Workspace\Facultad\2026\Microelectrónica\TPs\TP1\models.txt
C:\Users\joako\AppData\Local\LTspice\lib\sub\TCLib\triangular.lib

