LTspice 24.1.8 for Windows
Circuit: C:\Workspace\Facultad\2026\Microelectrónica\TPs\TP1_ej3_relacion1.net
Start Time: Wed Mar 25 23:25:12 2026
solver = Normal
Maximum thread count: 12
tnom = 27
temp = 27
method = modified trap
WARNING: Node nc_02 is floating.
WARNING: Node nc_04 is floating.

Direct Newton iteration for .op point succeeded.
Total elapsed time: 0.100 seconds.

Files loaded:
C:\Workspace\Facultad\2026\Microelectrónica\TPs\TP1_ej3_relacion1.net
C:\Users\joako\AppData\Local\LTspice\lib\cmp\standard.mos
C:\Workspace\Facultad\2026\Microelectrónica\TPs\models.txt
C:\Users\joako\AppData\Local\LTspice\lib\sub\TCLib\triangular.lib

