LTspice 24.1.8 for Windows
Circuit: C:\Workspace\Facultad\2026\Microelectrónica\TPs\TP1_ej6.net
Start Time: Wed Mar 25 21:39:01 2026
solver = Normal
Maximum thread count: 12
tnom = 27
temp = 27
method = modified trap
Instance "M1": Width narrower than recommended for a level 3 MOSFET.
Instance "M2": Width narrower than recommended for a level 3 MOSFET.
Direct Newton iteration for .op point succeeded.
Total elapsed time: 0.099 seconds.

Files loaded:
C:\Workspace\Facultad\2026\Microelectrónica\TPs\TP1_ej6.net
C:\Users\joako\AppData\Local\LTspice\lib\cmp\standard.mos
C:\Workspace\Facultad\2026\Microelectrónica\TPs\models.txt
C:\Users\joako\AppData\Local\LTspice\lib\sub\TCLib\triangular.lib

