LTspice 24.1.8 for Windows
Circuit: C:\Workspace\Facultad\2026\Microelectrónica\TPs\TP1\TP1_ej6_NAND.net
Start Time: Tue Apr  7 22:37:50 2026
solver = Normal
Maximum thread count: 12
tnom = 27
temp = 27
method = modified trap
Direct Newton iteration for .op point succeeded.
Total elapsed time: 0.093 seconds.

Files loaded:
C:\Workspace\Facultad\2026\Microelectrónica\TPs\TP1\TP1_ej6_NAND.net
C:\Users\joako\AppData\Local\LTspice\lib\cmp\standard.mos
C:\Workspace\Facultad\2026\Microelectrónica\TPs\TP1\models.txt
C:\Users\joako\AppData\Local\LTspice\lib\sub\TCLib\triangular.lib

