LTspice 24.1.8 for Windows
Circuit: C:\Workspace\Facultad\2026\Microelectrónica\TPs\TP1\TP1_ej3_relacion10.net
Start Time: Tue Apr  7 09:22:45 2026
solver = Normal
Maximum thread count: 12
tnom = 27
temp = 27
method = modified trap
WARNING: Node nc_02 is floating.
WARNING: Node nc_04 is floating.

Instance "M2": Width narrower than recommended for a level 3 MOSFET.
Direct Newton iteration for .op point succeeded.
Total elapsed time: 0.113 seconds.

Files loaded:
C:\Workspace\Facultad\2026\Microelectrónica\TPs\TP1\TP1_ej3_relacion10.net
C:\Users\joako\AppData\Local\LTspice\lib\cmp\standard.mos
C:\Workspace\Facultad\2026\Microelectrónica\TPs\TP1\models.txt
C:\Users\joako\AppData\Local\LTspice\lib\sub\TCLib\triangular.lib

